Version 4
SHEET 1 3276 1876
WIRE -528 -240 -608 -240
WIRE -528 -128 -528 -160
WIRE 176 176 176 96
WIRE 256 176 176 176
WIRE 384 176 320 176
WIRE 944 176 944 96
WIRE 1024 176 944 176
WIRE 1152 176 1088 176
WIRE 1632 176 1632 96
WIRE 1712 176 1632 176
WIRE 1840 176 1776 176
WIRE 2400 176 2400 96
WIRE 2480 176 2400 176
WIRE 2608 176 2544 176
WIRE 176 240 176 176
WIRE 944 240 944 176
WIRE 1632 240 1632 176
WIRE 2400 240 2400 176
WIRE 176 560 176 480
WIRE 256 560 176 560
WIRE 384 560 320 560
WIRE 944 560 944 480
WIRE 1024 560 944 560
WIRE 1152 560 1088 560
WIRE 1632 560 1632 480
WIRE 1712 560 1632 560
WIRE 1840 560 1776 560
WIRE 2400 560 2400 480
WIRE 2480 560 2400 560
WIRE 2608 560 2544 560
WIRE 176 624 176 560
WIRE 944 624 944 560
WIRE 1632 624 1632 560
WIRE 2400 624 2400 560
WIRE 176 944 176 864
WIRE 256 944 176 944
WIRE 384 944 320 944
WIRE 944 944 944 864
WIRE 1024 944 944 944
WIRE 1152 944 1088 944
WIRE 1632 944 1632 864
WIRE 1712 944 1632 944
WIRE 1840 944 1776 944
WIRE 2400 944 2400 864
WIRE 2480 944 2400 944
WIRE 2608 944 2544 944
WIRE 176 1008 176 944
WIRE 944 1008 944 944
WIRE 1632 1008 1632 944
WIRE 2400 1008 2400 944
WIRE 176 1328 176 1248
WIRE 256 1328 176 1328
WIRE 384 1328 320 1328
WIRE 944 1328 944 1248
WIRE 1024 1328 944 1328
WIRE 1152 1328 1088 1328
WIRE 1632 1328 1632 1248
WIRE 1712 1328 1632 1328
WIRE 1840 1328 1776 1328
WIRE 2400 1328 2400 1248
WIRE 2480 1328 2400 1328
WIRE 2608 1328 2544 1328
WIRE 176 1392 176 1328
WIRE 944 1392 944 1328
WIRE 1632 1392 1632 1328
WIRE 2400 1392 2400 1328
WIRE 176 1712 176 1632
WIRE 256 1712 176 1712
WIRE 384 1712 320 1712
WIRE 944 1712 944 1632
WIRE 1024 1712 944 1712
WIRE 1152 1712 1088 1712
WIRE 1632 1712 1632 1632
WIRE 1712 1712 1632 1712
WIRE 1840 1712 1776 1712
WIRE 2400 1712 2400 1632
WIRE 2480 1712 2400 1712
WIRE 2608 1712 2544 1712
WIRE 176 1776 176 1712
WIRE 944 1776 944 1712
WIRE 1632 1776 1632 1712
WIRE 2400 1776 2400 1712
FLAG 176 320 0
FLAG 176 16 Vcc
FLAG -832 -128 Vcc
FLAG 384 176 common
FLAG -528 -128 0
FLAG -608 -240 common
FLAG 176 704 0
FLAG 176 400 Vcc
FLAG 384 560 common
FLAG 176 1088 0
FLAG 176 784 Vcc
FLAG 384 944 common
FLAG -912 -128 0
FLAG 176 1472 0
FLAG 176 1168 Vcc
FLAG 384 1328 common
FLAG 176 1856 0
FLAG 176 1552 Vcc
FLAG 384 1712 common
FLAG 944 320 0
FLAG 944 16 Vcc
FLAG 1152 176 common
FLAG 944 704 0
FLAG 944 400 Vcc
FLAG 1152 560 common
FLAG 944 1088 0
FLAG 944 784 Vcc
FLAG 1152 944 common
FLAG 944 1472 0
FLAG 944 1168 Vcc
FLAG 1152 1328 common
FLAG 944 1856 0
FLAG 944 1552 Vcc
FLAG 1152 1712 common
FLAG 1632 320 0
FLAG 1632 16 Vcc
FLAG 1840 176 common
FLAG 1632 704 0
FLAG 1632 400 Vcc
FLAG 1840 560 common
FLAG 1632 1088 0
FLAG 1632 784 Vcc
FLAG 1840 944 common
FLAG 1632 1472 0
FLAG 1632 1168 Vcc
FLAG 1840 1328 common
FLAG 1632 1856 0
FLAG 1632 1552 Vcc
FLAG 1840 1712 common
FLAG 2400 320 0
FLAG 2400 16 Vcc
FLAG 2608 176 common
FLAG 2400 704 0
FLAG 2400 400 Vcc
FLAG 2608 560 common
FLAG 2400 1088 0
FLAG 2400 784 Vcc
FLAG 2608 944 common
FLAG 2400 1472 0
FLAG 2400 1168 Vcc
FLAG 2608 1328 common
FLAG 2400 1856 0
FLAG 2400 1552 Vcc
FLAG 2608 1712 common
SYMBOL res 160 224 R0
SYMATTR InstName RFixed1
SYMATTR Value ={RFixed1}
SYMBOL res 160 0 R0
SYMATTR InstName Therm1
SYMATTR Value R = {R0Therm1*exp(-BTherm1*( 1/(T0Therm) - 1/( (time + 273.15) )))}
SYMBOL diode 256 192 R270
WINDOW 0 32 32 VTop 2
WINDOW 3 0 32 VBottom 2
SYMATTR InstName D1
SYMATTR Value {Diode}
SYMBOL res -544 -256 R0
SYMATTR InstName Rpdn
SYMATTR Value 100k
SYMBOL res 160 608 R0
SYMATTR InstName RFixed2
SYMATTR Value ={RFixed2}
SYMBOL res 160 384 R0
SYMATTR InstName Therm2
SYMATTR Value R = {R0Therm2*exp(-BTherm2*( 1/(T0Therm) - 1/( (time + 273.15) )))}
SYMBOL diode 256 576 R270
WINDOW 0 32 32 VTop 2
WINDOW 3 0 32 VBottom 2
SYMATTR InstName D2
SYMATTR Value {Diode}
SYMBOL res 160 992 R0
SYMATTR InstName RFixed3
SYMATTR Value ={RFixed3}
SYMBOL res 160 768 R0
SYMATTR InstName Therm3
SYMATTR Value R = {R0Therm3*exp(-BTherm3*( 1/(T0Therm) - 1/( (time + 273.15) )))}
SYMBOL diode 256 960 R270
WINDOW 0 32 32 VTop 2
WINDOW 3 0 32 VBottom 2
SYMATTR InstName D3
SYMATTR Value {Diode}
SYMBOL bv -816 -128 M270
WINDOW 0 32 56 VTop 2
WINDOW 3 -32 56 VBottom 2
SYMATTR InstName Regulator
SYMATTR Value V= {5+gauss(1)}
SYMBOL res 160 1376 R0
SYMATTR InstName RFixed4
SYMATTR Value ={RFixed3}
SYMBOL res 160 1152 R0
SYMATTR InstName Therm4
SYMATTR Value R = {R0Therm3*exp(-BTherm3*( 1/(T0Therm) - 1/( (time + 273.15) )))}
SYMBOL diode 256 1344 R270
WINDOW 0 32 32 VTop 2
WINDOW 3 0 32 VBottom 2
SYMATTR InstName D4
SYMATTR Value {Diode}
SYMBOL res 160 1760 R0
SYMATTR InstName RFixed5
SYMATTR Value ={RFixed3}
SYMBOL res 160 1536 R0
SYMATTR InstName Therm5
SYMATTR Value R = {R0Therm3*exp(-BTherm3*( 1/(T0Therm) - 1/( (time + 273.15) )))}
SYMBOL diode 256 1728 R270
WINDOW 0 32 32 VTop 2
WINDOW 3 0 32 VBottom 2
SYMATTR InstName D5
SYMATTR Value {Diode}
SYMBOL res 928 224 R0
SYMATTR InstName RFixed6
SYMATTR Value ={RFixed1}
SYMBOL res 928 0 R0
SYMATTR InstName Therm6
SYMATTR Value R = {R0Therm1*exp(-BTherm1*( 1/(T0Therm) - 1/( (time + 273.15) )))}
SYMBOL diode 1024 192 R270
WINDOW 0 32 32 VTop 2
WINDOW 3 0 32 VBottom 2
SYMATTR InstName D6
SYMATTR Value {Diode}
SYMBOL res 928 608 R0
SYMATTR InstName RFixed7
SYMATTR Value ={RFixed2}
SYMBOL res 928 384 R0
SYMATTR InstName Therm7
SYMATTR Value R = {R0Therm2*exp(-BTherm2*( 1/(T0Therm) - 1/( (time + 273.15) )))}
SYMBOL diode 1024 576 R270
WINDOW 0 32 32 VTop 2
WINDOW 3 0 32 VBottom 2
SYMATTR InstName D7
SYMATTR Value {Diode}
SYMBOL res 928 992 R0
SYMATTR InstName RFixed8
SYMATTR Value ={RFixed3}
SYMBOL res 928 768 R0
SYMATTR InstName Therm8
SYMATTR Value R = {R0Therm3*exp(-BTherm3*( 1/(T0Therm) - 1/( (time + 273.15) )))}
SYMBOL diode 1024 960 R270
WINDOW 0 32 32 VTop 2
WINDOW 3 0 32 VBottom 2
SYMATTR InstName D8
SYMATTR Value {Diode}
SYMBOL res 928 1376 R0
SYMATTR InstName RFixed9
SYMATTR Value ={RFixed3}
SYMBOL res 928 1152 R0
SYMATTR InstName Therm9
SYMATTR Value R = {R0Therm3*exp(-BTherm3*( 1/(T0Therm) - 1/( (time + 273.15) )))}
SYMBOL diode 1024 1344 R270
WINDOW 0 32 32 VTop 2
WINDOW 3 0 32 VBottom 2
SYMATTR InstName D9
SYMATTR Value {Diode}
SYMBOL res 928 1760 R0
SYMATTR InstName RFixed10
SYMATTR Value ={RFixed3}
SYMBOL res 928 1536 R0
SYMATTR InstName Therm10
SYMATTR Value R = {R0Therm3*exp(-BTherm3*( 1/(T0Therm) - 1/( (time + 273.15) )))}
SYMBOL diode 1024 1728 R270
WINDOW 0 32 32 VTop 2
WINDOW 3 0 32 VBottom 2
SYMATTR InstName D10
SYMATTR Value {Diode}
SYMBOL res 1616 224 R0
SYMATTR InstName RFixed11
SYMATTR Value ={RFixed1}
SYMBOL res 1616 0 R0
SYMATTR InstName Therm11
SYMATTR Value R = {R0Therm1*exp(-BTherm1*( 1/(T0Therm) - 1/( (time + 273.15) )))}
SYMBOL diode 1712 192 R270
WINDOW 0 32 32 VTop 2
WINDOW 3 0 32 VBottom 2
SYMATTR InstName D11
SYMATTR Value {Diode}
SYMBOL res 1616 608 R0
SYMATTR InstName RFixed12
SYMATTR Value ={RFixed2}
SYMBOL res 1616 384 R0
SYMATTR InstName Therm12
SYMATTR Value R = {R0Therm2*exp(-BTherm2*( 1/(T0Therm) - 1/( (time + 273.15) )))}
SYMBOL diode 1712 576 R270
WINDOW 0 32 32 VTop 2
WINDOW 3 0 32 VBottom 2
SYMATTR InstName D12
SYMATTR Value {Diode}
SYMBOL res 1616 992 R0
SYMATTR InstName RFixed13
SYMATTR Value ={RFixed3}
SYMBOL res 1616 768 R0
SYMATTR InstName Therm13
SYMATTR Value R = {R0Therm3*exp(-BTherm3*( 1/(T0Therm) - 1/( (time + 273.15) )))}
SYMBOL diode 1712 960 R270
WINDOW 0 32 32 VTop 2
WINDOW 3 0 32 VBottom 2
SYMATTR InstName D13
SYMATTR Value {Diode}
SYMBOL res 1616 1376 R0
SYMATTR InstName RFixed14
SYMATTR Value ={RFixed3}
SYMBOL res 1616 1152 R0
SYMATTR InstName Therm14
SYMATTR Value R = {R0Therm3*exp(-BTherm3*( 1/(T0Therm) - 1/( (time + 273.15) )))}
SYMBOL diode 1712 1344 R270
WINDOW 0 32 32 VTop 2
WINDOW 3 0 32 VBottom 2
SYMATTR InstName D14
SYMATTR Value {Diode}
SYMBOL res 1616 1760 R0
SYMATTR InstName RFixed15
SYMATTR Value ={RFixed3}
SYMBOL res 1616 1536 R0
SYMATTR InstName Therm15
SYMATTR Value R = {R0Therm3*exp(-BTherm3*( 1/(T0Therm) - 1/( (time + 273.15) )))}
SYMBOL diode 1712 1728 R270
WINDOW 0 32 32 VTop 2
WINDOW 3 0 32 VBottom 2
SYMATTR InstName D15
SYMATTR Value {Diode}
SYMBOL res 2384 224 R0
SYMATTR InstName RFixed16
SYMATTR Value ={RFixed1}
SYMBOL res 2384 0 R0
SYMATTR InstName Therm16
SYMATTR Value R = {R0Therm1*exp(-BTherm1*( 1/(T0Therm) - 1/( (time + 273.15) )))}
SYMBOL diode 2480 192 R270
WINDOW 0 32 32 VTop 2
WINDOW 3 0 32 VBottom 2
SYMATTR InstName D16
SYMATTR Value {Diode}
SYMBOL res 2384 608 R0
SYMATTR InstName RFixed17
SYMATTR Value ={RFixed2}
SYMBOL res 2384 384 R0
SYMATTR InstName Therm17
SYMATTR Value R = {R0Therm2*exp(-BTherm2*( 1/(T0Therm) - 1/( (time + 273.15) )))}
SYMBOL diode 2480 576 R270
WINDOW 0 32 32 VTop 2
WINDOW 3 0 32 VBottom 2
SYMATTR InstName D17
SYMATTR Value {Diode}
SYMBOL res 2384 992 R0
SYMATTR InstName RFixed18
SYMATTR Value ={RFixed3}
SYMBOL res 2384 768 R0
SYMATTR InstName Therm18
SYMATTR Value R = {R0Therm3*exp(-BTherm3*( 1/(T0Therm) - 1/( (time + 273.15) )))}
SYMBOL diode 2480 960 R270
WINDOW 0 32 32 VTop 2
WINDOW 3 0 32 VBottom 2
SYMATTR InstName D18
SYMATTR Value {Diode}
SYMBOL res 2384 1376 R0
SYMATTR InstName RFixed19
SYMATTR Value ={RFixed3}
SYMBOL res 2384 1152 R0
SYMATTR InstName Therm19
SYMATTR Value R = {R0Therm3*exp(-BTherm3*( 1/(T0Therm) - 1/( (time + 273.15) )))}
SYMBOL diode 2480 1344 R270
WINDOW 0 32 32 VTop 2
WINDOW 3 0 32 VBottom 2
SYMATTR InstName D19
SYMATTR Value {Diode}
SYMBOL res 2384 1760 R0
SYMATTR InstName RFixed20
SYMATTR Value ={RFixed3}
SYMBOL res 2384 1536 R0
SYMATTR InstName Therm20
SYMATTR Value R = {R0Therm3*exp(-BTherm3*( 1/(T0Therm) - 1/( (time + 273.15) )))}
SYMBOL diode 2480 1728 R270
WINDOW 0 32 32 VTop 2
WINDOW 3 0 32 VBottom 2
SYMATTR InstName D20
SYMATTR Value {Diode}
TEXT -960 400 Left 2 !.tran 70
TEXT -960 72 Left 2 !.param T0Therm=25+273.15
TEXT -960 32 Left 2 ;Thermistor Parameters
TEXT -960 184 Left 2 !.param RFixedNom=1k RFixedTol=0.1
TEXT -960 152 Left 2 ;Fixed Resistor Parameters
TEXT -960 368 Left 2 ;Simulation Parameters
TEXT -960 304 Left 2 !.param RPdnNom=10k RPdnTol=0.1
TEXT -960 272 Left 2 ;Pulldown Resistor Parameters
TEXT -960 432 Left 2 !.include params.txt
TEXT -960 464 Left 2 !.model 1 AKO: 1N4148
TEXT -960 496 Left 2 !.param Diode 1
