Version 4
SHEET 1 1176 680
WIRE 176 176 176 80
WIRE 256 176 176 176
WIRE 352 176 320 176
WIRE 432 176 352 176
WIRE 176 208 176 176
WIRE 352 208 352 176
FLAG 176 288 0
FLAG 352 -160 0
FLAG 176 0 Vcc
FLAG 432 -160 Vcc
FLAG 352 288 0
FLAG 432 176 common
SYMBOL res 160 192 R0
SYMATTR InstName R1
SYMATTR Value 1k
SYMBOL res 160 -16 R0
SYMATTR InstName Therm1
SYMATTR Value R = {10000*exp(-3380*( 1/(25+273.15) - 1/( (time + 273.15) )))}
SYMBOL voltage 448 -160 R90
WINDOW 0 -32 56 VBottom 2
WINDOW 3 32 56 VTop 2
SYMATTR InstName Regulator
SYMATTR Value 5
SYMBOL diode 256 192 R270
WINDOW 0 32 32 VTop 2
WINDOW 3 0 32 VBottom 2
SYMATTR InstName D1
SYMATTR Value {Diode}
SYMBOL res 336 192 R0
SYMATTR InstName R2
SYMATTR Value 100k
TEXT -416 8 Left 2 !.model 1 AKO: 1N4148    \n.model 2 AKO: 1N914\n.model 3 AKO: MMSD4148\n.model 4 AKO: 1N5817\n.model 5 AKO: 1N5818\n.model 6 AKO: 1N5819\n.model 7 AKO: BAT54\n \n.STEP Param Diode list 1 2 3 3 4 5 6 7\n.tran 70
