Version 4
SHEET 1 4100 1876
WIRE -288 -400 -368 -400
WIRE -288 -288 -288 -320
WIRE 176 -240 176 -320
WIRE 256 -240 176 -240
WIRE 432 -240 320 -240
WIRE 480 -240 432 -240
WIRE 432 -208 432 -240
WIRE 176 -176 176 -240
WIRE 432 -96 432 -128
WIRE 1168 160 1168 80
WIRE 1248 160 1168 160
WIRE 1376 160 1312 160
WIRE 2144 160 2144 80
WIRE 2224 160 2144 160
WIRE 2352 160 2288 160
WIRE 3120 160 3120 80
WIRE 3200 160 3120 160
WIRE 3328 160 3264 160
WIRE 176 176 176 96
WIRE 256 176 176 176
WIRE 384 176 320 176
WIRE 1168 224 1168 160
WIRE 2144 224 2144 160
WIRE 3120 224 3120 160
WIRE 176 240 176 176
WIRE 1168 544 1168 464
WIRE 1248 544 1168 544
WIRE 1376 544 1312 544
WIRE 2144 544 2144 464
WIRE 2224 544 2144 544
WIRE 2352 544 2288 544
WIRE 3120 544 3120 464
WIRE 3200 544 3120 544
WIRE 3328 544 3264 544
WIRE 176 560 176 480
WIRE 256 560 176 560
WIRE 384 560 320 560
WIRE 1168 608 1168 544
WIRE 2144 608 2144 544
WIRE 3120 608 3120 544
WIRE 176 624 176 560
WIRE 1168 928 1168 848
WIRE 1248 928 1168 928
WIRE 1376 928 1312 928
WIRE 2144 928 2144 848
WIRE 2224 928 2144 928
WIRE 2352 928 2288 928
WIRE 3120 928 3120 848
WIRE 3200 928 3120 928
WIRE 3328 928 3264 928
WIRE 176 944 176 864
WIRE 256 944 176 944
WIRE 384 944 320 944
WIRE 1168 992 1168 928
WIRE 2144 992 2144 928
WIRE 3120 992 3120 928
WIRE 176 1008 176 944
WIRE 1168 1312 1168 1232
WIRE 1248 1312 1168 1312
WIRE 1376 1312 1312 1312
WIRE 2144 1312 2144 1232
WIRE 2224 1312 2144 1312
WIRE 2352 1312 2288 1312
WIRE 3120 1312 3120 1232
WIRE 3200 1312 3120 1312
WIRE 3328 1312 3264 1312
WIRE 176 1328 176 1248
WIRE 256 1328 176 1328
WIRE 384 1328 320 1328
WIRE 1168 1376 1168 1312
WIRE 2144 1376 2144 1312
WIRE 3120 1376 3120 1312
WIRE 176 1392 176 1328
WIRE 1168 1696 1168 1616
WIRE 1248 1696 1168 1696
WIRE 1376 1696 1312 1696
WIRE 2144 1696 2144 1616
WIRE 2224 1696 2144 1696
WIRE 2352 1696 2288 1696
WIRE 3120 1696 3120 1616
WIRE 3200 1696 3120 1696
WIRE 3328 1696 3264 1696
WIRE 176 1712 176 1632
WIRE 256 1712 176 1712
WIRE 384 1712 320 1712
WIRE 1168 1760 1168 1696
WIRE 2144 1760 2144 1696
WIRE 3120 1760 3120 1696
WIRE 176 1776 176 1712
FLAG 176 320 0
FLAG 176 16 Vcc
FLAG -592 -352 Vcc
FLAG 384 176 common
FLAG -288 -288 0
FLAG -368 -400 common
FLAG 176 704 0
FLAG 176 400 Vcc
FLAG 384 560 common
FLAG 176 1088 0
FLAG 176 784 Vcc
FLAG 384 944 common
FLAG -672 -352 0
FLAG 176 1472 0
FLAG 176 1168 Vcc
FLAG 384 1328 common
FLAG 176 1856 0
FLAG 176 1552 Vcc
FLAG 384 1712 common
FLAG 1168 304 0
FLAG 1168 0 Vcc
FLAG 1376 160 common
FLAG 1168 688 0
FLAG 1168 384 Vcc
FLAG 1376 544 common
FLAG 1168 1072 0
FLAG 1168 768 Vcc
FLAG 1376 928 common
FLAG 1168 1456 0
FLAG 1168 1152 Vcc
FLAG 1376 1312 common
FLAG 1168 1840 0
FLAG 1168 1536 Vcc
FLAG 1376 1696 common
FLAG 2144 304 0
FLAG 2144 0 Vcc
FLAG 2352 160 common
FLAG 2144 688 0
FLAG 2144 384 Vcc
FLAG 2352 544 common
FLAG 2144 1072 0
FLAG 2144 768 Vcc
FLAG 2352 928 common
FLAG 2144 1456 0
FLAG 2144 1152 Vcc
FLAG 2352 1312 common
FLAG 2144 1840 0
FLAG 2144 1536 Vcc
FLAG 2352 1696 common
FLAG 3120 304 0
FLAG 3120 0 Vcc
FLAG 3328 160 common
FLAG 3120 688 0
FLAG 3120 384 Vcc
FLAG 3328 544 common
FLAG 3120 1072 0
FLAG 3120 768 Vcc
FLAG 3328 928 common
FLAG 3120 1456 0
FLAG 3120 1152 Vcc
FLAG 3328 1312 common
FLAG 3120 1840 0
FLAG 3120 1536 Vcc
FLAG 3328 1696 common
FLAG 176 176 senseHigh
FLAG 1168 160 sense2
FLAG 2144 160 sense3
FLAG 3120 160 sense4
FLAG 3120 544 sense17
FLAG 2144 544 sense12
FLAG 2144 1312 sense14
FLAG 3120 1312 sense19
FLAG 2144 1696 sense15
FLAG 3120 1696 sense20
FLAG 1168 1696 sense10
FLAG 176 1712 sense5
FLAG 1168 1312 sense9
FLAG 1168 928 sense8
FLAG 176 1328 sense4
FLAG 176 944 sense3
FLAG 1168 544 sense7
FLAG 176 560 sense2
FLAG 176 -96 0
FLAG 176 -400 Vcc
FLAG 480 -240 commonTest
FLAG 176 -240 senseHighTest
FLAG 432 -96 0
SYMBOL res 160 224 R0
SYMATTR InstName RFixed1
SYMATTR Value ={RFixed1}
SYMBOL res 160 0 R0
SYMATTR InstName Therm1
SYMATTR Value R = {R0Therm1*exp(-BTherm1*( 1/(T0Therm) - 1/( (time + 273.15 + THigh) )))}
SYMBOL diode 256 192 R270
WINDOW 0 32 32 VTop 2
WINDOW 3 0 32 VBottom 2
SYMATTR InstName D1
SYMATTR Value {Diode}
SYMBOL res -304 -416 R0
SYMATTR InstName Rpdn
SYMATTR Value ={RPdn}
SYMBOL res 160 608 R0
SYMATTR InstName RFixed2
SYMATTR Value ={RFixed2}
SYMBOL res 160 384 R0
SYMATTR InstName Therm2
SYMATTR Value R = {R0Therm2*exp(-BTherm2*( 1/(T0Therm) - 1/( (time + 273.15 + T2) )))}
SYMBOL diode 256 576 R270
WINDOW 0 32 32 VTop 2
WINDOW 3 0 32 VBottom 2
SYMATTR InstName D2
SYMATTR Value {Diode}
SYMBOL res 160 992 R0
SYMATTR InstName RFixed3
SYMATTR Value ={RFixed3}
SYMBOL res 160 768 R0
SYMATTR InstName Therm3
SYMATTR Value R = {R0Therm3*exp(-BTherm3*( 1/(T0Therm) - 1/( (time + 273.15 + T3) )))}
SYMBOL diode 256 960 R270
WINDOW 0 32 32 VTop 2
WINDOW 3 0 32 VBottom 2
SYMATTR InstName D3
SYMATTR Value {Diode}
SYMBOL bv -576 -352 M270
WINDOW 0 32 56 VTop 2
WINDOW 3 -32 56 VBottom 2
SYMATTR InstName Regulator
SYMATTR Value V= {5}
SYMBOL res 160 1376 R0
SYMATTR InstName RFixed4
SYMATTR Value ={RFixed4}
SYMBOL res 160 1152 R0
SYMATTR InstName Therm4
SYMATTR Value R = {R0Therm4*exp(-BTherm4*( 1/(T0Therm) - 1/( (time + 273.15 + T4) )))}
SYMBOL diode 256 1344 R270
WINDOW 0 32 32 VTop 2
WINDOW 3 0 32 VBottom 2
SYMATTR InstName D4
SYMATTR Value {Diode}
SYMBOL res 160 1760 R0
SYMATTR InstName RFixed5
SYMATTR Value ={RFixed5}
SYMBOL res 160 1536 R0
SYMATTR InstName Therm5
SYMATTR Value R = {R0Therm5*exp(-BTherm5*( 1/(T0Therm) - 1/( (time + 273.15 + T5) )))}
SYMBOL diode 256 1728 R270
WINDOW 0 32 32 VTop 2
WINDOW 3 0 32 VBottom 2
SYMATTR InstName D5
SYMATTR Value {Diode}
SYMBOL res 1152 208 R0
SYMATTR InstName RFixed6
SYMATTR Value ={RFixed6}
SYMBOL res 1152 -16 R0
SYMATTR InstName Therm6
SYMATTR Value R = {R0Therm6*exp(-BTherm6*( 1/(T0Therm) - 1/( (time + 273.15 + T6) )))}
SYMBOL diode 1248 176 R270
WINDOW 0 32 32 VTop 2
WINDOW 3 0 32 VBottom 2
SYMATTR InstName D6
SYMATTR Value {Diode}
SYMBOL res 1152 592 R0
SYMATTR InstName RFixed7
SYMATTR Value ={RFixed7}
SYMBOL res 1152 368 R0
SYMATTR InstName Therm7
SYMATTR Value R = {R0Therm7*exp(-BTherm7*( 1/(T0Therm) - 1/( (time + 273.15 + T7) )))}
SYMBOL diode 1248 560 R270
WINDOW 0 32 32 VTop 2
WINDOW 3 0 32 VBottom 2
SYMATTR InstName D7
SYMATTR Value {Diode}
SYMBOL res 1152 976 R0
SYMATTR InstName RFixed8
SYMATTR Value ={RFixed8}
SYMBOL res 1152 752 R0
SYMATTR InstName Therm8
SYMATTR Value R = {R0Therm8*exp(-BTherm8*( 1/(T0Therm) - 1/( (time + 273.15 + T8) )))}
SYMBOL diode 1248 944 R270
WINDOW 0 32 32 VTop 2
WINDOW 3 0 32 VBottom 2
SYMATTR InstName D8
SYMATTR Value {Diode}
SYMBOL res 1152 1360 R0
SYMATTR InstName RFixed9
SYMATTR Value ={RFixed9}
SYMBOL res 1152 1136 R0
SYMATTR InstName Therm9
SYMATTR Value R = {R0Therm9*exp(-BTherm9*( 1/(T0Therm) - 1/( (time + 273.15 + T9) )))}
SYMBOL diode 1248 1328 R270
WINDOW 0 32 32 VTop 2
WINDOW 3 0 32 VBottom 2
SYMATTR InstName D9
SYMATTR Value {Diode}
SYMBOL res 1152 1744 R0
SYMATTR InstName RFixed10
SYMATTR Value ={RFixed10}
SYMBOL res 1152 1520 R0
SYMATTR InstName Therm10
SYMATTR Value R = {R0Therm10*exp(-BTherm10*( 1/(T0Therm) - 1/( (time + 273.15 + T10) )))}
SYMBOL diode 1248 1712 R270
WINDOW 0 32 32 VTop 2
WINDOW 3 0 32 VBottom 2
SYMATTR InstName D10
SYMATTR Value {Diode}
SYMBOL res 2128 208 R0
SYMATTR InstName RFixed11
SYMATTR Value ={RFixed11}
SYMBOL res 2128 -16 R0
SYMATTR InstName Therm11
SYMATTR Value R = {R0Therm11*exp(-BTherm11*( 1/(T0Therm) - 1/( (time + 273.15 + T11) )))}
SYMBOL diode 2224 176 R270
WINDOW 0 32 32 VTop 2
WINDOW 3 0 32 VBottom 2
SYMATTR InstName D11
SYMATTR Value {Diode}
SYMBOL res 2128 592 R0
SYMATTR InstName RFixed12
SYMATTR Value ={RFixed12}
SYMBOL res 2128 368 R0
SYMATTR InstName Therm12
SYMATTR Value R = {R0Therm12*exp(-BTherm12*( 1/(T0Therm) - 1/( (time + 273.15 + T12) )))}
SYMBOL diode 2224 560 R270
WINDOW 0 32 32 VTop 2
WINDOW 3 0 32 VBottom 2
SYMATTR InstName D12
SYMATTR Value {Diode}
SYMBOL res 2128 976 R0
SYMATTR InstName RFixed13
SYMATTR Value ={RFixed13}
SYMBOL res 2128 752 R0
SYMATTR InstName Therm13
SYMATTR Value R = {R0Therm13*exp(-BTherm13*( 1/(T0Therm) - 1/( (time + 273.15 + T13) )))}
SYMBOL diode 2224 944 R270
WINDOW 0 32 32 VTop 2
WINDOW 3 0 32 VBottom 2
SYMATTR InstName D13
SYMATTR Value {Diode}
SYMBOL res 2128 1360 R0
SYMATTR InstName RFixed14
SYMATTR Value ={RFixed14}
SYMBOL res 2128 1136 R0
SYMATTR InstName Therm14
SYMATTR Value R = {R0Therm14*exp(-BTherm14*( 1/(T0Therm) - 1/( (time + 273.15 + T14) )))}
SYMBOL diode 2224 1328 R270
WINDOW 0 32 32 VTop 2
WINDOW 3 0 32 VBottom 2
SYMATTR InstName D14
SYMATTR Value {Diode}
SYMBOL res 2128 1744 R0
SYMATTR InstName RFixed15
SYMATTR Value ={RFixed15}
SYMBOL res 2128 1520 R0
SYMATTR InstName Therm15
SYMATTR Value R = {R0Therm15*exp(-BTherm15*( 1/(T0Therm) - 1/( (time + 273.15 + T15) )))}
SYMBOL diode 2224 1712 R270
WINDOW 0 32 32 VTop 2
WINDOW 3 0 32 VBottom 2
SYMATTR InstName D15
SYMATTR Value {Diode}
SYMBOL res 3104 208 R0
SYMATTR InstName RFixed16
SYMATTR Value ={RFixed16}
SYMBOL res 3104 -16 R0
SYMATTR InstName Therm16
SYMATTR Value R = {R0Therm16*exp(-BTherm16*( 1/(T0Therm) - 1/( (time + 273.15 + T16) )))}
SYMBOL diode 3200 176 R270
WINDOW 0 32 32 VTop 2
WINDOW 3 0 32 VBottom 2
SYMATTR InstName D16
SYMATTR Value {Diode}
SYMBOL res 3104 592 R0
SYMATTR InstName RFixed17
SYMATTR Value ={RFixed17}
SYMBOL res 3104 368 R0
SYMATTR InstName Therm17
SYMATTR Value R = {R0Therm17*exp(-BTherm17*( 1/(T0Therm) - 1/( (time + 273.15 + T17) )))}
SYMBOL diode 3200 560 R270
WINDOW 0 32 32 VTop 2
WINDOW 3 0 32 VBottom 2
SYMATTR InstName D17
SYMATTR Value {Diode}
SYMBOL res 3104 976 R0
SYMATTR InstName RFixed18
SYMATTR Value ={RFixed18}
SYMBOL res 3104 752 R0
SYMATTR InstName Therm18
SYMATTR Value R = {R0Therm18*exp(-BTherm18*( 1/(T0Therm) - 1/( (time + 273.15 + T18) )))}
SYMBOL diode 3200 944 R270
WINDOW 0 32 32 VTop 2
WINDOW 3 0 32 VBottom 2
SYMATTR InstName D18
SYMATTR Value {Diode}
SYMBOL res 3104 1360 R0
SYMATTR InstName RFixed19
SYMATTR Value ={RFixed19}
SYMBOL res 3104 1136 R0
SYMATTR InstName Therm19
SYMATTR Value R = {R0Therm19*exp(-BTherm19*( 1/(T0Therm) - 1/( (time + 273.15 + T19) )))}
SYMBOL diode 3200 1328 R270
WINDOW 0 32 32 VTop 2
WINDOW 3 0 32 VBottom 2
SYMATTR InstName D19
SYMATTR Value {Diode}
SYMBOL res 3104 1744 R0
SYMATTR InstName RFixed20
SYMATTR Value ={RFixed20}
SYMBOL res 3104 1520 R0
SYMATTR InstName Therm20
SYMATTR Value R = {R0Therm20*exp(-BTherm20*( 1/(T0Therm) - 1/( (time + 273.15 + T20) )))}
SYMBOL diode 3200 1712 R270
WINDOW 0 32 32 VTop 2
WINDOW 3 0 32 VBottom 2
SYMATTR InstName D20
SYMATTR Value {Diode}
SYMBOL res 160 -192 R0
SYMATTR InstName RFixed21
SYMATTR Value ={RFixed1}
SYMBOL res 160 -416 R0
SYMATTR InstName Therm21
SYMATTR Value R = {R0Therm1*exp(-BTherm1*( 1/(T0Therm) - 1/( (time + 273.15 + THigh) )))}
SYMBOL diode 256 -224 R270
WINDOW 0 32 32 VTop 2
WINDOW 3 0 32 VBottom 2
SYMATTR InstName D21
SYMATTR Value {Diode}
SYMBOL res 416 -224 R0
SYMATTR InstName Rpdn1
SYMATTR Value ={RPdn}
TEXT -696 56 Left 2 !.tran 70
TEXT -696 -72 Left 2 ;Simulation Parameters
TEXT -696 -40 Left 2 !.include params.txt
TEXT -696 -8 Left 2 !.model 1 AKO: 1N4148
TEXT -696 24 Left 2 !.param Diode 1
TEXT -696 -192 Left 2 ;All other parameters are managed and \nwritten to params.txt by generate-params.py
