Version 4
SHEET 1 964 680
WIRE 176 176 176 128
WIRE 272 176 176 176
WIRE 352 176 336 176
WIRE 432 176 352 176
WIRE 592 176 592 128
WIRE 688 176 592 176
WIRE 768 176 752 176
WIRE 848 176 768 176
WIRE 176 208 176 176
WIRE 352 208 352 176
WIRE 592 208 592 176
WIRE 768 208 768 176
FLAG 176 288 0
FLAG -32 112 0
FLAG 176 48 Vcc
FLAG -32 32 Vcc
FLAG 352 288 0
FLAG 432 176 common
FLAG 592 288 0
FLAG 592 48 Vcc
FLAG 768 288 0
FLAG 848 176 common
FLAG -304 176 0
FLAG -304 96 test
SYMBOL res 160 192 R0
SYMATTR InstName R1
SYMATTR Value 3.3k
SYMBOL res 160 32 R0
SYMATTR InstName Therm1
SYMATTR Value R={28803-147.3944*time}
SYMBOL voltage -32 16 R0
SYMATTR InstName Regulator
SYMATTR Value 5
SYMBOL diode 272 192 R270
WINDOW 0 32 32 VTop 2
WINDOW 3 0 32 VBottom 2
SYMATTR InstName D1
SYMATTR Value MUR460
SYMBOL res 336 192 R0
SYMATTR InstName R2
SYMATTR Value 250k
SYMBOL res 576 192 R0
SYMATTR InstName R3
SYMATTR Value 3.3k
SYMBOL res 576 32 R0
SYMATTR InstName Therm2
SYMATTR Value R={28803-147.3944*time}
SYMBOL diode 688 192 R270
WINDOW 0 32 32 VTop 2
WINDOW 3 0 32 VBottom 2
SYMATTR InstName D2
SYMATTR Value MUR460
SYMBOL res 752 192 R0
SYMATTR InstName R4
SYMATTR Value 250k
SYMBOL voltage -304 80 R0
SYMATTR InstName Vtest
SYMATTR Value V={0.1*time}
TEXT -64 264 Left 2 !.tran 180
